<?xml version="1.0" encoding="UTF-8"?>

<!-- generated on 2026-01-01 16:25:24 by Eclipse SUMO netconvert Version 1.24.0
<netconvertConfiguration xmlns:xsi="http://www.w3.org/2001/XMLSchema-instance" xsi:noNamespaceSchemaLocation="http://sumo.dlr.de/xsd/netconvertConfiguration.xsd">

    <input>
        <osm-files value="D:\capstonee\osm try\sumo_web\data\map.osm"/>
    </input>

    <output>
        <output-file value="D:\capstonee\osm try\sumo_web\data\base.net.xml"/>
    </output>

    <projection>
        <proj.utm value="true"/>
    </projection>

    <processing>
        <geometry.remove value="true"/>
    </processing>

    <ramp_guessing>
        <ramps.guess value="true"/>
    </ramp_guessing>

</netconvertConfiguration>
-->

<net version="1.20" junctionCornerDetail="5" limitTurnSpeed="5.50" xmlns:xsi="http://www.w3.org/2001/XMLSchema-instance" xsi:noNamespaceSchemaLocation="http://sumo.dlr.de/xsd/net_file.xsd">

    <location netOffset="-778836.13,-1435786.18" convBoundary="0.00,0.00,851.39,1324.69" origBoundary="77.483855,12.917267,77.761361,12.995992" projParameter="+proj=utm +zone=43 +ellps=WGS84 +datum=WGS84 +units=m +no_defs"/>

    <type id="highway.footway" priority="1" numLanes="1" speed="2.78" allow="pedestrian" oneway="1" width="2.00"/>
    <type id="highway.primary" priority="12" numLanes="2" speed="27.78" disallow="tram rail_urban rail rail_electric rail_fast ship container cable_car subway aircraft wheelchair scooter drone" oneway="0"/>
    <type id="highway.primary_link" priority="7" numLanes="1" speed="22.22" disallow="tram rail_urban rail rail_electric rail_fast ship container cable_car subway aircraft wheelchair scooter drone" oneway="0"/>
    <type id="highway.residential" priority="3" numLanes="1" speed="13.89" disallow="tram rail_urban rail rail_electric rail_fast ship container cable_car subway aircraft wheelchair scooter drone" oneway="0"/>
    <type id="highway.secondary" priority="11" numLanes="1" speed="27.78" disallow="tram rail_urban rail rail_electric rail_fast ship container cable_car subway aircraft wheelchair scooter drone" oneway="0"/>
    <type id="highway.secondary_link" priority="6" numLanes="1" speed="22.22" disallow="tram rail_urban rail rail_electric rail_fast ship container cable_car subway aircraft wheelchair scooter drone" oneway="0"/>
    <type id="highway.service" priority="1" numLanes="1" speed="5.56" allow="pedestrian delivery bicycle" oneway="0"/>
    <type id="highway.service|psv" priority="1" numLanes="1" speed="13.89" allow="pedestrian bus delivery bicycle" oneway="0"/>
    <type id="highway.tertiary" priority="10" numLanes="1" speed="22.22" disallow="tram rail_urban rail rail_electric rail_fast ship container cable_car subway aircraft wheelchair scooter drone" oneway="0"/>
    <type id="railway.rail" priority="20" numLanes="1" speed="44.44" allow="rail" oneway="1"/>
    <type id="railway.subway" priority="18" numLanes="1" speed="27.78" allow="subway" oneway="1"/>

    <edge id=":10035411699_0" function="internal">
        <lane id=":10035411699_0_0" index="0" disallow="tram rail_urban rail rail_electric rail_fast ship container cable_car subway aircraft wheelchair scooter drone" speed="6.16" length="7.82" shape="571.53,635.66 571.87,634.25 573.01,633.19 574.94,632.48 577.67,632.12"/>
    </edge>
    <edge id=":10035411699_1" function="internal">
        <lane id=":10035411699_1_0" index="0" disallow="tram rail_urban rail rail_electric rail_fast ship container cable_car subway aircraft wheelchair scooter drone" speed="3.65" length="4.67" shape="571.53,635.66 572.29,634.43 573.07,634.00 573.89,634.38 574.72,635.55"/>
    </edge>
    <edge id=":10035411699_2" function="internal">
        <lane id=":10035411699_2_0" index="0" disallow="tram rail_urban rail rail_electric rail_fast ship container cable_car subway aircraft wheelchair scooter drone" speed="22.22" length="9.42" shape="568.27,632.71 577.67,632.12"/>
    </edge>
    <edge id=":10035411699_3" function="internal">
        <lane id=":10035411699_3_0" index="0" disallow="tram rail_urban rail rail_electric rail_fast ship container cable_car subway aircraft wheelchair scooter drone" speed="6.05" length="7.85" shape="568.27,632.71 571.06,632.73 573.06,633.21 574.28,634.15 574.72,635.55"/>
    </edge>
    <edge id=":10035411700_0" function="internal">
        <lane id=":10035411700_0_0" index="0" disallow="tram rail_urban rail rail_electric rail_fast ship container cable_car subway aircraft wheelchair scooter drone" speed="3.65" length="4.67" shape="575.54,660.37 574.78,661.59 573.99,662.02 573.18,661.65 572.34,660.47"/>
    </edge>
    <edge id=":10035411701_0" function="internal">
        <lane id=":10035411701_0_0" index="0" allow="pedestrian delivery bicycle" speed="3.65" length="4.67" shape="594.10,693.39 595.33,694.15 595.75,694.94 595.38,695.75 594.20,696.59"/>
    </edge>
    <edge id=":10035411702_0" function="internal">
        <lane id=":10035411702_0_0" index="0" allow="pedestrian delivery bicycle" speed="5.04" length="5.00" shape="594.71,794.12 593.85,795.19 593.54,796.27 593.78,797.38 594.57,798.50"/>
        <lane id=":10035411702_0_1" index="1" allow="pedestrian delivery bicycle" speed="6.08" length="7.76" shape="594.71,794.12 592.83,796.14 591.79,797.91 591.59,799.43 592.23,800.69"/>
    </edge>
    <edge id=":10035411702_2" function="internal">
        <lane id=":10035411702_2_0" index="0" allow="pedestrian delivery bicycle" speed="3.65" length="4.67" shape="594.71,794.12 593.29,794.35 592.45,794.04 592.19,793.18 592.52,791.78"/>
    </edge>
    <edge id=":10035411702_3" function="internal">
        <lane id=":10035411702_3_0" index="0" allow="pedestrian delivery bicycle" speed="5.07" length="5.02" shape="588.11,791.69 589.19,792.53 590.28,792.82 591.39,792.57 592.52,791.78"/>
    </edge>
    <edge id=":10035411702_4" function="internal">
        <lane id=":10035411702_4_0" index="0" disallow="tram rail_urban rail rail_electric rail_fast ship container cable_car subway aircraft wheelchair scooter drone" speed="27.78" length="9.33" shape="588.11,791.69 594.57,798.50"/>
        <lane id=":10035411702_4_1" index="1" disallow="tram rail_urban rail rail_electric rail_fast ship container cable_car subway aircraft wheelchair scooter drone" speed="27.78" length="9.33" shape="585.80,793.90 592.23,800.69"/>
        <lane id=":10035411702_4_2" index="2" disallow="tram rail_urban rail rail_electric rail_fast ship container cable_car subway aircraft wheelchair scooter drone" speed="27.78" length="9.33" shape="583.49,796.12 589.90,802.88"/>
        <lane id=":10035411702_4_3" index="3" disallow="tram rail_urban rail rail_electric rail_fast ship container cable_car subway aircraft wheelchair scooter drone" speed="27.78" length="9.33" shape="581.18,798.33 587.56,805.06"/>
    </edge>
    <edge id=":10035411710_0" function="internal">
        <lane id=":10035411710_0_0" index="0" allow="pedestrian delivery bicycle" speed="5.56" length="6.41" shape="583.59,738.57 582.76,736.66 581.78,735.32 580.64,734.56 579.35,734.37"/>
    </edge>
    <edge id=":10035411710_1" function="internal">
        <lane id=":10035411710_1_0" index="0" allow="pedestrian delivery bicycle" speed="5.56" length="11.86" shape="583.59,738.57 582.95,735.21 583.65,732.79 585.69,731.32 589.06,730.77"/>
    </edge>
    <edge id=":10035411710_2" function="internal">
        <lane id=":10035411710_2_0" index="0" allow="pedestrian delivery bicycle" speed="3.65" length="4.67" shape="583.59,738.57 583.96,737.17 584.58,736.54 585.47,736.66 586.61,737.54"/>
    </edge>
    <edge id=":10035411710_3" function="internal">
        <lane id=":10035411710_3_0" index="0" allow="pedestrian delivery bicycle" speed="4.78" length="5.42" shape="589.12,733.97 587.57,734.22 586.64,734.90 586.32,736.00 586.61,737.54"/>
    </edge>
    <edge id=":10035411710_4" function="internal">
        <lane id=":10035411710_4_0" index="0" allow="pedestrian delivery bicycle" speed="5.56" length="9.77" shape="589.12,733.97 579.35,734.37"/>
    </edge>
    <edge id=":10035411710_5" function="internal">
        <lane id=":10035411710_5_0" index="0" allow="pedestrian delivery bicycle" speed="3.65" length="4.67" shape="589.12,733.97 587.90,733.19 587.49,732.40 587.87,731.60 589.06,730.77"/>
    </edge>
    <edge id=":10035411710_6" function="internal">
        <lane id=":10035411710_6_0" index="0" allow="pedestrian delivery bicycle" speed="5.56" length="9.95" shape="579.11,731.18 589.06,730.77"/>
    </edge>
    <edge id=":10035411710_7" function="internal">
        <lane id=":10035411710_7_0" index="0" allow="pedestrian delivery bicycle" speed="5.56" length="10.65" shape="579.11,731.18 581.53,731.43 583.59,732.58 585.28,734.61 586.61,737.54"/>
    </edge>
    <edge id=":10035411710_8" function="internal">
        <lane id=":10035411710_8_0" index="0" allow="pedestrian delivery bicycle" speed="3.65" length="4.67" shape="579.11,731.18 580.37,731.89 580.83,732.66 580.49,733.49 579.35,734.37"/>
    </edge>
    <edge id=":10035411711_0" function="internal">
        <lane id=":10035411711_0_0" index="0" allow="pedestrian delivery bicycle" speed="3.65" length="4.67" shape="635.52,729.94 636.73,730.71 637.15,731.51 636.76,732.31 635.58,733.14"/>
    </edge>
    <edge id=":10035411715_0" function="internal">
        <lane id=":10035411715_0_0" index="0" allow="pedestrian delivery bicycle" speed="3.65" length="4.67" shape="550.95,721.88 551.26,720.48 551.86,719.82 552.75,719.90 553.93,720.73"/>
    </edge>
    <edge id=":10035411716_0" function="internal">
        <lane id=":10035411716_0_0" index="0" disallow="tram rail_urban rail rail_electric rail_fast ship container cable_car subway aircraft wheelchair scooter drone" speed="6.88" length="7.78" shape="467.05,729.49 465.42,730.16 464.19,731.38 463.35,733.14 462.91,735.44"/>
    </edge>
    <edge id=":10035411716_1" function="internal">
        <lane id=":10035411716_1_0" index="0" disallow="tram rail_urban rail rail_electric rail_fast ship container cable_car subway aircraft wheelchair scooter drone" speed="6.15" length="9.84" shape="467.05,729.49 464.06,729.77 462.00,729.07 460.89,727.39 460.72,724.74"/>
    </edge>
    <edge id=":10035411716_2" function="internal">
        <lane id=":10035411716_2_0" index="0" disallow="tram rail_urban rail rail_electric rail_fast ship container cable_car subway aircraft wheelchair scooter drone" speed="3.65" length="4.67" shape="467.05,729.49 465.71,728.97 465.14,728.27 465.36,727.40 466.36,726.36"/>
    </edge>
    <edge id=":10035411716_3" function="internal">
        <lane id=":10035411716_3_0" index="0" disallow="tram rail_urban rail rail_electric rail_fast ship container cable_car subway aircraft wheelchair scooter drone" speed="4.01" length="3.44" shape="463.91,725.01 463.99,725.82 464.43,726.32 465.22,726.50 466.36,726.36"/>
    </edge>
    <edge id=":10035411716_4" function="internal">
        <lane id=":10035411716_4_0" index="0" disallow="tram rail_urban rail rail_electric rail_fast ship container cable_car subway aircraft wheelchair scooter drone" speed="27.78" length="10.48" shape="463.91,725.01 462.91,735.44"/>
    </edge>
    <edge id=":10035411716_5" function="internal">
        <lane id=":10035411716_5_0" index="0" disallow="tram rail_urban rail rail_electric rail_fast ship container cable_car subway aircraft wheelchair scooter drone" speed="3.65" length="1.44" shape="463.91,725.01 463.01,726.14"/>
    </edge>
    <edge id=":10035411716_9" function="internal">
        <lane id=":10035411716_9_0" index="0" disallow="tram rail_urban rail rail_electric rail_fast ship container cable_car subway aircraft wheelchair scooter drone" speed="3.65" length="3.23" shape="463.01,726.14 462.18,726.47 461.42,726.01 460.72,724.74"/>
    </edge>
    <edge id=":10035411716_6" function="internal">
        <lane id=":10035411716_6_0" index="0" disallow="tram rail_urban rail rail_electric rail_fast ship container cable_car subway aircraft wheelchair scooter drone" speed="27.78" length="10.43" shape="459.72,735.13 460.72,724.74"/>
    </edge>
    <edge id=":10035411716_7" function="internal">
        <lane id=":10035411716_7_0" index="0" disallow="tram rail_urban rail rail_electric rail_fast ship container cable_car subway aircraft wheelchair scooter drone" speed="8.35" length="4.25" shape="459.72,735.13 460.41,731.79 460.79,731.04"/>
    </edge>
    <edge id=":10035411716_8" function="internal">
        <lane id=":10035411716_8_0" index="0" disallow="tram rail_urban rail rail_electric rail_fast ship container cable_car subway aircraft wheelchair scooter drone" speed="3.65" length="1.44" shape="459.72,735.13 460.63,734.01"/>
    </edge>
    <edge id=":10035411716_10" function="internal">
        <lane id=":10035411716_10_0" index="0" disallow="tram rail_urban rail rail_electric rail_fast ship container cable_car subway aircraft wheelchair scooter drone" speed="8.35" length="7.58" shape="460.79,731.04 461.74,729.21 463.72,727.40 466.36,726.36"/>
    </edge>
    <edge id=":10035411716_11" function="internal">
        <lane id=":10035411716_11_0" index="0" disallow="tram rail_urban rail rail_electric rail_fast ship container cable_car subway aircraft wheelchair scooter drone" speed="3.65" length="3.23" shape="460.63,734.01 461.47,733.69 462.23,734.16 462.91,735.44"/>
    </edge>
    <edge id=":10035532917_0" function="internal">
        <lane id=":10035532917_0_0" index="0" disallow="tram rail_urban rail rail_electric rail_fast ship container cable_car subway aircraft wheelchair scooter drone" speed="3.65" length="4.67" shape="508.83,716.96 510.17,717.48 510.74,718.18 510.52,719.05 509.52,720.09"/>
    </edge>
    <edge id=":10035532919_0" function="internal">
        <lane id=":10035532919_0_0" index="0" allow="pedestrian delivery bicycle" speed="5.14" length="5.23" shape="297.50,627.01 296.12,626.97 295.05,627.41 294.28,628.33 293.81,629.74"/>
    </edge>
    <edge id=":10035532919_1" function="internal">
        <lane id=":10035532919_1_0" index="0" allow="pedestrian delivery bicycle" speed="5.56" length="9.54" shape="297.50,627.01 288.06,625.61"/>
    </edge>
    <edge id=":10035532919_2" function="internal">
        <lane id=":10035532919_2_0" index="0" allow="pedestrian delivery bicycle" speed="5.56" length="10.18" shape="297.50,627.01 294.86,626.12 293.14,624.59 292.35,622.44 292.47,619.65"/>
    </edge>
    <edge id=":10035532919_3" function="internal">
        <lane id=":10035532919_3_0" index="0" allow="pedestrian delivery bicycle" speed="3.65" length="4.67" shape="297.50,627.01 296.47,626.00 296.22,625.14 296.76,624.43 298.09,623.86"/>
    </edge>
    <edge id=":10035532919_4" function="internal">
        <lane id=":10035532919_4_0" index="0" allow="pedestrian delivery bicycle" speed="5.04" length="5.00" shape="295.62,620.24 295.55,621.62 295.95,622.68 296.79,623.42 298.09,623.86"/>
    </edge>
    <edge id=":10035532919_5" function="internal">
        <lane id=":10035532919_5_0" index="0" allow="pedestrian delivery bicycle" speed="5.56" length="9.67" shape="295.62,620.24 293.81,629.74"/>
    </edge>
    <edge id=":10035532919_6" function="internal">
        <lane id=":10035532919_6_0" index="0" allow="pedestrian delivery bicycle" speed="5.56" length="10.40" shape="295.62,620.24 294.71,622.86 293.15,624.63 290.93,625.55 288.06,625.61"/>
    </edge>
    <edge id=":10035532919_7" function="internal">
        <lane id=":10035532919_7_0" index="0" allow="pedestrian delivery bicycle" speed="3.65" length="4.67" shape="295.62,620.24 294.61,621.27 293.75,621.52 293.04,620.98 292.47,619.65"/>
    </edge>
    <edge id=":10035532919_8" function="internal">
        <lane id=":10035532919_8_0" index="0" allow="pedestrian delivery bicycle" speed="5.39" length="5.52" shape="288.42,622.43 289.97,622.40 291.16,621.93 291.99,621.01 292.47,619.65"/>
    </edge>
    <edge id=":10035532919_9" function="internal">
        <lane id=":10035532919_9_0" index="0" allow="pedestrian delivery bicycle" speed="5.56" length="9.78" shape="288.42,622.43 298.09,623.86"/>
    </edge>
    <edge id=":10035532919_10" function="internal">
        <lane id=":10035532919_10_0" index="0" allow="pedestrian delivery bicycle" speed="5.56" length="10.55" shape="288.42,622.43 291.25,623.17 293.09,624.63 293.94,626.82 293.81,629.74"/>
    </edge>
    <edge id=":10035532919_11" function="internal">
        <lane id=":10035532919_11_0" index="0" allow="pedestrian delivery bicycle" speed="3.65" length="4.67" shape="288.42,622.43 289.52,623.36 289.83,624.20 289.35,624.95 288.06,625.61"/>
    </edge>
    <edge id=":10035532919_12" function="internal">
        <lane id=":10035532919_12_0" index="0" allow="pedestrian delivery bicycle" speed="4.96" length="5.09" shape="290.67,629.14 290.73,627.73 290.32,626.68 289.43,625.97 288.06,625.61"/>
    </edge>
    <edge id=":10035532919_13" function="internal">
        <lane id=":10035532919_13_0" index="0" allow="pedestrian delivery bicycle" speed="5.56" length="9.67" shape="290.67,629.14 292.47,619.65"/>
    </edge>
    <edge id=":10035532919_14" function="internal">
        <lane id=":10035532919_14_0" index="0" allow="pedestrian delivery bicycle" speed="5.56" length="10.38" shape="290.67,629.14 291.59,626.40 293.14,624.61 295.30,623.76 298.09,623.86"/>
    </edge>
    <edge id=":10035532919_15" function="internal">
        <lane id=":10035532919_15_0" index="0" allow="pedestrian delivery bicycle" speed="3.65" length="4.67" shape="290.67,629.14 291.68,628.11 292.54,627.87 293.25,628.41 293.81,629.74"/>
    </edge>
    <edge id=":10035532921_0" function="internal">
        <lane id=":10035532921_0_0" index="0" allow="pedestrian delivery bicycle" speed="5.56" length="9.10" shape="382.15,652.88 373.25,650.96"/>
    </edge>
    <edge id=":10035532921_1" function="internal">
        <lane id=":10035532921_1_0" index="0" allow="pedestrian delivery bicycle" speed="5.56" length="10.24" shape="382.15,652.88 379.54,651.82 377.91,650.19 377.26,647.97 377.59,645.18"/>
    </edge>
    <edge id=":10035532921_2" function="internal">
        <lane id=":10035532921_2_0" index="0" allow="pedestrian delivery bicycle" speed="3.65" length="4.67" shape="382.15,652.88 381.18,651.81 380.98,650.94 381.56,650.26 382.92,649.77"/>
    </edge>
    <edge id=":10035532921_3" function="internal">
        <lane id=":10035532921_3_0" index="0" allow="pedestrian delivery bicycle" speed="5.02" length="5.02" shape="380.69,646.00 380.53,647.37 380.84,648.45 381.64,649.25 382.92,649.77"/>
    </edge>
    <edge id=":10035532921_4" function="internal">
        <lane id=":10035532921_4_0" index="0" allow="pedestrian delivery bicycle" speed="5.56" length="10.02" shape="380.69,646.00 379.62,648.57 378.03,650.25 375.91,651.05 373.25,650.96"/>
    </edge>
    <edge id=":10035532921_5" function="internal">
        <lane id=":10035532921_5_0" index="0" allow="pedestrian delivery bicycle" speed="3.65" length="4.67" shape="380.69,646.00 379.61,646.95 378.73,647.13 378.06,646.54 377.59,645.18"/>
    </edge>
    <edge id=":10035532921_6" function="internal">
        <lane id=":10035532921_6_0" index="0" allow="pedestrian delivery bicycle" speed="5.24" length="5.16" shape="373.82,647.81 375.16,647.85 376.23,647.42 377.04,646.53 377.59,645.18"/>
    </edge>
    <edge id=":10035532921_7" function="internal">
        <lane id=":10035532921_7_0" index="0" allow="pedestrian delivery bicycle" speed="5.56" length="9.30" shape="373.82,647.81 382.92,649.77"/>
    </edge>
    <edge id=":10035532921_8" function="internal">
        <lane id=":10035532921_8_0" index="0" allow="pedestrian delivery bicycle" speed="3.65" length="4.67" shape="373.82,647.81 374.86,648.81 375.11,649.67 374.58,650.39 373.25,650.96"/>
    </edge>
    <edge id=":10035532922_0" function="internal">
        <lane id=":10035532922_0_0" index="0" allow="pedestrian delivery bicycle" speed="4.93" length="5.13" shape="369.18,650.22 367.76,650.17 366.70,650.60 366.02,651.52 365.72,652.91"/>
    </edge>
    <edge id=":10035532922_1" function="internal">
        <lane id=":10035532922_1_0" index="0" allow="pedestrian delivery bicycle" speed="5.56" length="10.22" shape="369.18,650.22 366.41,649.35 364.49,647.90 363.42,645.87 363.20,643.27"/>
    </edge>
    <edge id=":10035532922_2" function="internal">
        <lane id=":10035532922_2_0" index="0" allow="pedestrian delivery bicycle" speed="3.65" length="4.67" shape="369.18,650.22 368.15,649.22 367.89,648.36 368.43,647.65 369.75,647.07"/>
    </edge>
    <edge id=":10035532922_3" function="internal">
        <lane id=":10035532922_3_0" index="0" allow="pedestrian delivery bicycle" speed="5.42" length="5.46" shape="366.40,643.50 366.53,644.82 367.13,645.86 368.21,646.61 369.75,647.07"/>
    </edge>
    <edge id=":10035532922_4" function="internal">
        <lane id=":10035532922_4_0" index="0" allow="pedestrian delivery bicycle" speed="5.56" length="9.44" shape="366.40,643.50 365.72,652.91"/>
    </edge>
    <edge id=":10035532922_5" function="internal">
        <lane id=":10035532922_5_0" index="0" allow="pedestrian delivery bicycle" speed="3.65" length="4.67" shape="366.40,643.50 365.51,644.64 364.68,644.98 363.92,644.52 363.20,643.27"/>
    </edge>
    <edge id=":10035532922_6" function="internal">
        <lane id=":10035532922_6_0" index="0" allow="pedestrian delivery bicycle" speed="5.56" length="9.44" shape="362.53,652.68 363.20,643.27"/>
    </edge>
    <edge id=":10035532922_7" function="internal">
        <lane id=":10035532922_7_0" index="0" allow="pedestrian delivery bicycle" speed="5.56" length="10.71" shape="362.53,652.68 363.16,649.77 364.58,647.87 366.78,646.97 369.75,647.07"/>
    </edge>
    <edge id=":10035532922_8" function="internal">
        <lane id=":10035532922_8_0" index="0" allow="pedestrian delivery bicycle" speed="3.65" length="4.67" shape="362.53,652.68 363.41,651.54 364.24,651.20 365.01,651.66 365.72,652.91"/>
    </edge>
    <edge id=":10035532934_0" function="internal">
        <lane id=":10035532934_0_0" index="0" allow="pedestrian delivery bicycle" speed="5.56" length="8.88" shape="444.62,661.95 443.93,664.50 443.50,666.25 443.16,668.02 442.74,670.63"/>
    </edge>
    <edge id=":10035532934_1" function="internal">
        <lane id=":10035532934_1_0" index="0" allow="pedestrian delivery bicycle" speed="5.56" length="10.04" shape="444.62,661.95 443.53,664.47 441.89,666.06 439.71,666.71 436.98,666.44"/>
    </edge>
    <edge id=":10035532934_2" function="internal">
        <lane id=":10035532934_2_0" index="0" allow="pedestrian delivery bicycle" speed="3.65" length="4.67" shape="444.62,661.95 443.53,662.90 442.65,663.08 441.98,662.48 441.53,661.11"/>
    </edge>
    <edge id=":10035532934_3" function="internal">
        <lane id=":10035532934_3_0" index="0" allow="pedestrian delivery bicycle" speed="5.07" length="4.97" shape="437.75,663.33 439.10,663.47 440.18,663.14 440.99,662.36 441.53,661.11"/>
    </edge>
    <edge id=":10035532934_4" function="internal">
        <lane id=":10035532934_4_0" index="0" allow="pedestrian delivery bicycle" speed="5.56" length="9.90" shape="437.75,663.33 440.28,664.34 441.96,665.89 442.78,667.98 442.74,670.63"/>
    </edge>
    <edge id=":10035532934_5" function="internal">
        <lane id=":10035532934_5_0" index="0" allow="pedestrian delivery bicycle" speed="3.65" length="4.67" shape="437.75,663.33 438.72,664.40 438.92,665.27 438.34,665.95 436.98,666.44"/>
    </edge>
    <edge id=":10035532934_6" function="internal">
        <lane id=":10035532934_6_0" index="0" allow="pedestrian delivery bicycle" speed="5.21" length="5.05" shape="439.58,670.13 439.59,668.80 439.16,667.74 438.29,666.95 436.98,666.44"/>
    </edge>
    <edge id=":10035532934_7" function="internal">
        <lane id=":10035532934_7_0" index="0" allow="pedestrian delivery bicycle" speed="5.56" length="9.23" shape="439.58,670.13 440.02,667.42 440.37,665.58 440.81,663.76 441.53,661.11"/>
    </edge>
    <edge id=":10035532934_8" function="internal">
        <lane id=":10035532934_8_0" index="0" allow="pedestrian delivery bicycle" speed="3.65" length="4.67" shape="439.58,670.13 440.56,669.07 441.41,668.80 442.14,669.32 442.74,670.63"/>
    </edge>
    <edge id=":10035532935_0" function="internal">
        <lane id=":10035532935_0_0" index="0" allow="pedestrian delivery bicycle" speed="5.56" length="9.43" shape="438.23,722.12 428.81,721.61"/>
    </edge>
    <edge id=":10035532935_1" function="internal">
        <lane id=":10035532935_1_0" index="0" allow="pedestrian delivery bicycle" speed="5.56" length="10.68" shape="438.23,722.12 435.31,721.54 433.39,720.16 432.44,717.98 432.48,715.01"/>
    </edge>
    <edge id=":10035532935_2" function="internal">
        <lane id=":10035532935_2_0" index="0" allow="pedestrian delivery bicycle" speed="3.65" length="4.67" shape="438.23,722.12 437.07,721.26 436.72,720.43 437.16,719.66 438.40,718.92"/>
    </edge>
    <edge id=":10035532935_3" function="internal">
        <lane id=":10035532935_3_0" index="0" allow="pedestrian delivery bicycle" speed="4.94" length="5.13" shape="435.64,715.51 435.62,716.94 436.08,717.98 437.00,718.64 438.40,718.92"/>
    </edge>
    <edge id=":10035532935_4" function="internal">
        <lane id=":10035532935_4_0" index="0" allow="pedestrian delivery bicycle" speed="5.56" length="10.22" shape="435.64,715.51 434.83,718.30 433.43,720.24 431.42,721.35 428.81,721.61"/>
    </edge>
    <edge id=":10035532935_5" function="internal">
        <lane id=":10035532935_5_0" index="0" allow="pedestrian delivery bicycle" speed="3.65" length="4.67" shape="435.64,715.51 434.66,716.57 433.81,716.84 433.08,716.32 432.48,715.01"/>
    </edge>
    <edge id=":10035532935_6" function="internal">
        <lane id=":10035532935_6_0" index="0" allow="pedestrian delivery bicycle" speed="5.40" length="5.44" shape="428.98,718.41 430.30,718.26 431.32,717.64 432.05,716.56 432.48,715.01"/>
    </edge>
    <edge id=":10035532935_7" function="internal">
        <lane id=":10035532935_7_0" index="0" allow="pedestrian delivery bicycle" speed="5.56" length="9.43" shape="428.98,718.41 438.40,718.92"/>
    </edge>
    <edge id=":10035532935_8" function="internal">
        <lane id=":10035532935_8_0" index="0" allow="pedestrian delivery bicycle" speed="3.65" length="4.67" shape="428.98,718.41 430.13,719.28 430.49,720.10 430.05,720.88 428.81,721.61"/>
    </edge>
    <edge id=":10035532939_0" function="internal">
        <lane id=":10035532939_0_0" index="0" allow="pedestrian delivery bicycle" speed="3.65" length="4.67" shape="343.45,747.02 342.39,746.04 342.12,745.19 342.63,744.46 343.94,743.86"/>
    </edge>
    <edge id=":10035532941_0" function="internal">
        <lane id=":10035532941_0_0" index="0" allow="pedestrian delivery bicycle" speed="4.71" length="4.10" shape="439.71,609.38 439.80,610.25 440.29,610.95 441.18,611.46 442.48,611.79"/>
    </edge>
    <edge id=":10035532941_1" function="internal">
        <lane id=":10035532941_1_0" index="0" disallow="tram rail_urban rail rail_electric rail_fast ship container cable_car subway aircraft wheelchair scooter drone" speed="22.22" length="5.80" shape="436.76,610.87 442.48,611.79"/>
    </edge>
    <edge id=":10035532942_0" function="internal">
        <lane id=":10035532942_0_0" index="0" allow="pedestrian delivery bicycle" speed="5.56" length="6.25" shape="437.78,601.20 439.23,602.14 440.47,602.28 441.86,602.11 443.73,602.14"/>
    </edge>
    <edge id=":10035532942_1" function="internal">
        <lane id=":10035532942_1_0" index="0" allow="pedestrian delivery bicycle" speed="5.56" length="4.52" shape="437.78,601.20 438.93,602.32 439.72,603.30 440.17,604.14 440.27,604.83"/>
    </edge>
    <edge id=":10035532944_0" function="internal">
        <lane id=":10035532944_0_0" index="0" allow="pedestrian delivery bicycle" speed="5.56" length="6.15" shape="485.78,542.50 479.69,541.65"/>
    </edge>
    <edge id=":10035532944_1" function="internal">
        <lane id=":10035532944_1_0" index="0" allow="pedestrian delivery bicycle" speed="5.02" length="5.02" shape="482.24,545.21 482.29,543.83 481.87,542.78 481.01,542.05 479.69,541.65"/>
    </edge>
    <edge id=":10035532945_0" function="internal">
        <lane id=":10035532945_0_0" index="0" allow="pedestrian delivery bicycle" speed="4.56" length="3.89" shape="375.29,599.30 375.37,600.04 375.86,600.64 376.77,601.10 378.09,601.41"/>
    </edge>
    <edge id=":10035532945_1" function="internal">
        <lane id=":10035532945_1_0" index="0" allow="pedestrian delivery bicycle" speed="3.65" length="4.67" shape="375.29,599.30 374.32,600.36 373.46,600.64 372.73,600.12 372.13,598.81"/>
    </edge>
    <edge id=":10035532945_2" function="internal">
        <lane id=":10035532945_2_0" index="0" allow="pedestrian delivery bicycle" speed="4.54" length="3.88" shape="368.81,599.92 370.17,600.03 371.17,599.89 371.83,599.48 372.13,598.81"/>
    </edge>
    <edge id=":10035532945_3" function="internal">
        <lane id=":10035532945_3_0" index="0" disallow="tram rail_urban rail rail_electric rail_fast ship container cable_car subway aircraft wheelchair scooter drone" speed="22.22" length="9.40" shape="368.81,599.92 378.09,601.41"/>
    </edge>
    <edge id=":10035532950_0" function="internal">
        <lane id=":10035532950_0_0" index="0" allow="pedestrian delivery bicycle" speed="3.65" length="4.67" shape="371.39,549.13 372.32,548.03 373.16,547.72 373.91,548.21 374.57,549.49"/>
    </edge>
    <edge id=":10035532963_0" function="internal">