<nodes>
<node id="start" x="778997.5628008549" y="1436376.3535849757"/>
<node id="end" x="779277.8030737952" y="1436652.3079539607"/>
</nodes>
